<?xml version="1.0" encoding="UTF-8"?>

<!-- generated on 2023-01-18 23:51:01 by Eclipse SUMO GUI Version 1.15.0
-->

<configuration xmlns:xsi="http://www.w3.org/2001/XMLSchema-instance" xsi:noNamespaceSchemaLocation="http://sumo.dlr.de/xsd/sumoConfiguration.xsd">

    <input>
        <net-file value="intersection_3lanes.net.xml"/>
        <route-files value="v0_w2e.rou.xml"/>
    </input>

</configuration>
