<configuration>
    <net-file value="/home/xuhuizhang/intention_estimation/simulation/intersection/structure/structure/intersection_3lanes.net.xml"/>
    <route-files value="/home/xuhuizhang/intention_estimation/simulation/intersection/strcuture/v0to11_all.rou.xml"/>
</configuration>
