<?xml version="1.0" encoding="UTF-8"?>

<!-- generated on 2023-01-25 19:35:03 by Eclipse SUMO netedit Version 1.15.0
<configuration xmlns:xsi="http://www.w3.org/2001/XMLSchema-instance" xsi:noNamespaceSchemaLocation="http://sumo.dlr.de/xsd/netconvertConfiguration.xsd">

    <input>
        <sumo-net-file value="/home/xuhuizhang/intention_estimation/simulation/intersection/structure/jaywalk.net.xml"/>
    </input>

    <output>
        <output-file value="/home/xuhuizhang/intention_estimation/simulation/intersection/structure/jaywalk.net.xml"/>
    </output>

    <processing>
        <geometry.min-radius.fix.railways value="false"/>
        <geometry.max-grade.fix value="false"/>
        <offset.disable-normalization value="true"/>
        <lefthand value="0"/>
    </processing>

    <junctions>
        <no-turnarounds value="true"/>
        <junctions.corner-detail value="5"/>
        <junctions.limit-turn-speed value="5.50"/>
        <rectangular-lane-cut value="0"/>
    </junctions>

    <pedestrian>
        <walkingareas value="0"/>
    </pedestrian>

</configuration>
-->

<net version="1.9" junctionCornerDetail="5" limitTurnSpeed="5.50" xmlns:xsi="http://www.w3.org/2001/XMLSchema-instance" xsi:noNamespaceSchemaLocation="http://sumo.dlr.de/xsd/net_file.xsd">

    <location netOffset="0.00,0.00" convBoundary="-260.00,-20.00,40.00,40.10" origBoundary="-10000000000.00,-10000000000.00,10000000000.00,10000000000.00" projParameter="!"/>

    <edge id=":c1_0" function="internal">
        <lane id=":c1_0_0" index="0" allow="pedestrian bicycle" speed="4.64" length="4.08" shape="-215.30,37.60 -216.66,37.72 -217.62,38.08 -218.21,38.67 -218.40,39.50"/>
    </edge>
    <edge id=":c1_1" function="internal">
        <lane id=":c1_1_0" index="0" speed="13.89" length="6.20" shape="-215.30,37.60 -221.50,37.60"/>
        <lane id=":c1_1_1" index="1" speed="13.89" length="6.20" shape="-215.30,34.40 -221.50,34.40"/>
        <lane id=":c1_1_2" index="2" speed="13.89" length="6.20" shape="-215.30,31.20 -221.50,31.20"/>
        <lane id=":c1_1_3" index="3" speed="13.89" length="6.20" shape="-215.30,28.00 -221.50,28.00"/>
        <lane id=":c1_1_4" index="4" speed="13.89" length="6.20" shape="-215.30,24.80 -221.50,24.80"/>
        <lane id=":c1_1_5" index="5" speed="13.89" length="6.20" shape="-215.30,21.60 -221.50,21.60"/>
    </edge>
    <edge id=":c1_7" function="internal">
        <lane id=":c1_7_0" index="0" allow="pedestrian bicycle" speed="4.64" length="4.08" shape="-218.40,0.50 -218.21,1.33 -217.62,1.93 -216.66,2.28 -215.30,2.40"/>
        <lane id=":c1_7_1" index="1" allow="pedestrian bicycle" speed="5.70" length="6.69" shape="-218.40,0.50 -218.21,2.73 -217.62,4.32 -216.66,5.28 -215.30,5.60"/>
        <lane id=":c1_7_2" index="2" allow="pedestrian bicycle" speed="6.68" length="9.58" shape="-218.40,0.50 -218.21,4.13 -217.62,6.73 -216.66,8.28 -215.30,8.80"/>
        <lane id=":c1_7_3" index="3" allow="pedestrian bicycle" speed="7.57" length="12.57" shape="-218.40,0.50 -218.21,5.53 -217.62,9.12 -216.66,11.28 -215.30,12.00"/>
    </edge>
    <edge id=":c1_11" function="internal">
        <lane id=":c1_11_0" index="0" allow="pedestrian bicycle" speed="4.00" length="39.00" shape="-218.40,0.50 -218.40,39.50"/>
    </edge>
    <edge id=":c1_12" function="internal">
        <lane id=":c1_12_0" index="0" allow="pedestrian bicycle" speed="8.95" length="28.08" shape="-218.40,0.50 -218.59,12.53 -219.18,21.12 -220.14,26.28 -221.50,28.00"/>
        <lane id=":c1_12_1" index="1" allow="pedestrian bicycle" speed="8.95" length="24.94" shape="-218.40,0.50 -218.59,11.13 -219.18,18.72 -220.14,23.28 -221.50,24.80"/>
        <lane id=":c1_12_2" index="2" allow="pedestrian bicycle" speed="8.95" length="21.82" shape="-218.40,0.50 -218.59,9.73 -219.18,16.32 -220.14,20.28 -221.50,21.60"/>
    </edge>
    <edge id=":c1_15" function="internal">
        <lane id=":c1_15_0" index="0" speed="13.89" length="6.20" shape="-221.50,2.40 -215.30,2.40"/>
        <lane id=":c1_15_1" index="1" speed="13.89" length="6.20" shape="-221.50,5.60 -215.30,5.60"/>
        <lane id=":c1_15_2" index="2" speed="13.89" length="6.20" shape="-221.50,8.80 -215.30,8.80"/>
        <lane id=":c1_15_3" index="3" speed="13.89" length="6.20" shape="-221.50,12.00 -215.30,12.00"/>
        <lane id=":c1_15_4" index="4" speed="13.89" length="6.20" shape="-221.50,15.20 -215.30,15.20"/>
        <lane id=":c1_15_5" index="5" speed="13.89" length="6.20" shape="-221.50,18.40 -215.30,18.40"/>
    </edge>
    <edge id=":c1_21" function="internal">
        <lane id=":c1_21_0" index="0" allow="pedestrian bicycle" speed="8.95" length="1.37" shape="-221.50,18.40 -220.52,19.35"/>
    </edge>
    <edge id=":c1_22" function="internal">
        <lane id=":c1_22_0" index="0" allow="pedestrian bicycle" speed="8.95" length="20.45" shape="-220.52,19.35 -220.14,19.72 -219.17,23.67 -218.59,30.27 -218.40,39.50"/>
    </edge>
    <edge id=":c10_0" function="internal">
        <lane id=":c10_0_0" index="0" allow="pedestrian bicycle" speed="4.64" length="4.08" shape="-35.30,37.60 -36.66,37.72 -37.62,38.08 -38.21,38.67 -38.40,39.50"/>
    </edge>
    <edge id=":c10_1" function="internal">
        <lane id=":c10_1_0" index="0" speed="13.89" length="6.20" shape="-35.30,37.60 -41.50,37.60"/>
        <lane id=":c10_1_1" index="1" speed="13.89" length="6.20" shape="-35.30,34.40 -41.50,34.40"/>
        <lane id=":c10_1_2" index="2" speed="13.89" length="6.20" shape="-35.30,31.20 -41.50,31.20"/>
        <lane id=":c10_1_3" index="3" speed="13.89" length="6.20" shape="-35.30,28.00 -41.50,28.00"/>
        <lane id=":c10_1_4" index="4" speed="13.89" length="6.20" shape="-35.30,24.80 -41.50,24.80"/>
        <lane id=":c10_1_5" index="5" speed="13.89" length="6.20" shape="-35.30,21.60 -41.50,21.60"/>
    </edge>
    <edge id=":c10_7" function="internal">
        <lane id=":c10_7_0" index="0" allow="pedestrian bicycle" speed="4.64" length="4.08" shape="-38.40,0.50 -38.21,1.33 -37.62,1.92 -36.66,2.28 -35.30,2.40"/>
        <lane id=":c10_7_1" index="1" allow="pedestrian bicycle" speed="5.70" length="6.69" shape="-38.40,0.50 -38.21,2.73 -37.62,4.33 -36.66,5.28 -35.30,5.60"/>
        <lane id=":c10_7_2" index="2" allow="pedestrian bicycle" speed="6.68" length="9.58" shape="-38.40,0.50 -38.21,4.13 -37.62,6.73 -36.66,8.28 -35.30,8.80"/>
        <lane id=":c10_7_3" index="3" allow="pedestrian bicycle" speed="7.57" length="12.57" shape="-38.40,0.50 -38.21,5.53 -37.62,9.12 -36.66,11.28 -35.30,12.00"/>
    </edge>
    <edge id=":c10_11" function="internal">
        <lane id=":c10_11_0" index="0" allow="pedestrian bicycle" speed="4.00" length="39.00" shape="-38.40,0.50 -38.40,39.50"/>
    </edge>
    <edge id=":c10_12" function="internal">
        <lane id=":c10_12_0" index="0" allow="pedestrian bicycle" speed="8.95" length="28.08" shape="-38.40,0.50 -38.59,12.53 -39.17,21.12 -40.14,26.28 -41.50,28.00"/>
        <lane id=":c10_12_1" index="1" allow="pedestrian bicycle" speed="8.95" length="24.94" shape="-38.40,0.50 -38.59,11.13 -39.17,18.72 -40.14,23.28 -41.50,24.80"/>
        <lane id=":c10_12_2" index="2" allow="pedestrian bicycle" speed="8.95" length="21.82" shape="-38.40,0.50 -38.59,9.73 -39.17,16.32 -40.14,20.28 -41.50,21.60"/>
    </edge>
    <edge id=":c10_15" function="internal">
        <lane id=":c10_15_0" index="0" speed="13.89" length="6.20" shape="-41.50,2.40 -35.30,2.40"/>
        <lane id=":c10_15_1" index="1" speed="13.89" length="6.20" shape="-41.50,5.60 -35.30,5.60"/>
        <lane id=":c10_15_2" index="2" speed="13.89" length="6.20" shape="-41.50,8.80 -35.30,8.80"/>
        <lane id=":c10_15_3" index="3" speed="13.89" length="6.20" shape="-41.50,12.00 -35.30,12.00"/>
        <lane id=":c10_15_4" index="4" speed="13.89" length="6.20" shape="-41.50,15.20 -35.30,15.20"/>
        <lane id=":c10_15_5" index="5" speed="13.89" length="6.20" shape="-41.50,18.40 -35.30,18.40"/>
    </edge>
    <edge id=":c10_21" function="internal">
        <lane id=":c10_21_0" index="0" allow="pedestrian bicycle" speed="8.95" length="1.37" shape="-41.50,18.40 -40.52,19.35"/>
    </edge>
    <edge id=":c10_22" function="internal">
        <lane id=":c10_22_0" index="0" allow="pedestrian bicycle" speed="8.95" length="20.45" shape="-40.52,19.35 -40.14,19.72 -39.18,23.68 -38.59,30.27 -38.40,39.50"/>
    </edge>
    <edge id=":c11_0" function="internal">
        <lane id=":c11_0_0" index="0" allow="pedestrian bicycle" speed="4.64" length="4.08" shape="-15.30,37.60 -16.66,37.72 -17.62,38.08 -18.21,38.67 -18.40,39.50"/>
    </edge>
    <edge id=":c11_1" function="internal">
        <lane id=":c11_1_0" index="0" speed="13.89" length="6.20" shape="-15.30,37.60 -21.50,37.60"/>
        <lane id=":c11_1_1" index="1" speed="13.89" length="6.20" shape="-15.30,34.40 -21.50,34.40"/>
        <lane id=":c11_1_2" index="2" speed="13.89" length="6.20" shape="-15.30,31.20 -21.50,31.20"/>
        <lane id=":c11_1_3" index="3" speed="13.89" length="6.20" shape="-15.30,28.00 -21.50,28.00"/>
        <lane id=":c11_1_4" index="4" speed="13.89" length="6.20" shape="-15.30,24.80 -21.50,24.80"/>
        <lane id=":c11_1_5" index="5" speed="13.89" length="6.20" shape="-15.30,21.60 -21.50,21.60"/>
    </edge>
    <edge id=":c11_7" function="internal">
        <lane id=":c11_7_0" index="0" allow="pedestrian bicycle" speed="4.64" length="4.08" shape="-18.40,0.50 -18.21,1.33 -17.62,1.93 -16.66,2.28 -15.30,2.40"/>
        <lane id=":c11_7_1" index="1" allow="pedestrian bicycle" speed="5.70" length="6.69" shape="-18.40,0.50 -18.21,2.73 -17.62,4.32 -16.66,5.28 -15.30,5.60"/>
        <lane id=":c11_7_2" index="2" allow="pedestrian bicycle" speed="6.68" length="9.58" shape="-18.40,0.50 -18.21,4.13 -17.62,6.72 -16.66,8.28 -15.30,8.80"/>
        <lane id=":c11_7_3" index="3" allow="pedestrian bicycle" speed="7.57" length="12.57" shape="-18.40,0.50 -18.21,5.53 -17.62,9.12 -16.66,11.28 -15.30,12.00"/>
    </edge>
    <edge id=":c11_11" function="internal">
        <lane id=":c11_11_0" index="0" allow="pedestrian bicycle" speed="4.00" length="39.00" shape="-18.40,0.50 -18.40,39.50"/>
    </edge>
    <edge id=":c11_12" function="internal">
        <lane id=":c11_12_0" index="0" allow="pedestrian bicycle" speed="8.95" length="28.08" shape="-18.40,0.50 -18.59,12.53 -19.17,21.12 -20.14,26.28 -21.50,28.00"/>
        <lane id=":c11_12_1" index="1" allow="pedestrian bicycle" speed="8.95" length="24.94" shape="-18.40,0.50 -18.59,11.13 -19.17,18.72 -20.14,23.28 -21.50,24.80"/>
        <lane id=":c11_12_2" index="2" allow="pedestrian bicycle" speed="8.95" length="21.82" shape="-18.40,0.50 -18.59,9.73 -19.17,16.33 -20.14,20.28 -21.50,21.60"/>
    </edge>
    <edge id=":c11_15" function="internal">
        <lane id=":c11_15_0" index="0" speed="13.89" length="6.20" shape="-21.50,2.40 -15.30,2.40"/>
        <lane id=":c11_15_1" index="1" speed="13.89" length="6.20" shape="-21.50,5.60 -15.30,5.60"/>
        <lane id=":c11_15_2" index="2" speed="13.89" length="6.20" shape="-21.50,8.80 -15.30,8.80"/>
        <lane id=":c11_15_3" index="3" speed="13.89" length="6.20" shape="-21.50,12.00 -15.30,12.00"/>
        <lane id=":c11_15_4" index="4" speed="13.89" length="6.20" shape="-21.50,15.20 -15.30,15.20"/>
        <lane id=":c11_15_5" index="5" speed="13.89" length="6.20" shape="-21.50,18.40 -15.30,18.40"/>
    </edge>
    <edge id=":c11_21" function="internal">
        <lane id=":c11_21_0" index="0" allow="pedestrian bicycle" speed="8.95" length="1.37" shape="-21.50,18.40 -20.52,19.35"/>
    </edge>
    <edge id=":c11_22" function="internal">
        <lane id=":c11_22_0" index="0" allow="pedestrian bicycle" speed="8.95" length="20.45" shape="-20.52,19.35 -20.14,19.72 -19.18,23.67 -18.59,30.27 -18.40,39.50"/>
    </edge>
    <edge id=":c12_0" function="internal">
        <lane id=":c12_0_0" index="0" allow="pedestrian bicycle" speed="4.64" length="4.08" shape="4.70,37.60 3.34,37.72 2.37,38.08 1.79,38.67 1.60,39.50"/>
    </edge>
    <edge id=":c12_1" function="internal">
        <lane id=":c12_1_0" index="0" speed="13.89" length="6.20" shape="4.70,37.60 -1.50,37.60"/>
        <lane id=":c12_1_1" index="1" speed="13.89" length="6.20" shape="4.70,34.40 -1.50,34.40"/>
        <lane id=":c12_1_2" index="2" speed="13.89" length="6.20" shape="4.70,31.20 -1.50,31.20"/>
        <lane id=":c12_1_3" index="3" speed="13.89" length="6.20" shape="4.70,28.00 -1.50,28.00"/>
        <lane id=":c12_1_4" index="4" speed="13.89" length="6.20" shape="4.70,24.80 -1.50,24.80"/>
        <lane id=":c12_1_5" index="5" speed="13.89" length="6.20" shape="4.70,21.60 -1.50,21.60"/>
    </edge>
    <edge id=":c12_7" function="internal">
        <lane id=":c12_7_0" index="0" allow="pedestrian bicycle" speed="4.64" length="4.08" shape="1.60,0.50 1.79,1.33 2.38,1.93 3.34,2.28 4.70,2.40"/>
        <lane id=":c12_7_1" index="1" allow="pedestrian bicycle" speed="5.70" length="6.69" shape="1.60,0.50 1.79,2.73 2.38,4.32 3.34,5.28 4.70,5.60"/>
        <lane id=":c12_7_2" index="2" allow="pedestrian bicycle" speed="6.68" length="9.58" shape="1.60,0.50 1.79,4.13 2.38,6.72 3.34,8.28 4.70,8.80"/>
        <lane id=":c12_7_3" index="3" allow="pedestrian bicycle" speed="7.57" length="12.57" shape="1.60,0.50 1.79,5.53 2.38,9.12 3.34,11.28 4.70,12.00"/>
    </edge>
    <edge id=":c12_11" function="internal">
        <lane id=":c12_11_0" index="0" allow="pedestrian bicycle" speed="4.00" length="39.00" shape="1.60,0.50 1.60,39.50"/>
    </edge>
    <edge id=":c12_12" function="internal">
        <lane id=":c12_12_0" index="0" allow="pedestrian bicycle" speed="8.95" length="28.08" shape="1.60,0.50 1.41,12.53 0.83,21.12 -0.14,26.28 -1.50,28.00"/>
        <lane id=":c12_12_1" index="1" allow="pedestrian bicycle" speed="8.95" length="24.94" shape="1.60,0.50 1.41,11.13 0.83,18.72 -0.14,23.28 -1.50,24.80"/>
        <lane id=":c12_12_2" index="2" allow="pedestrian bicycle" speed="8.95" length="21.82" shape="1.60,0.50 1.41,9.73 0.83,16.33 -0.14,20.28 -1.50,21.60"/>
    </edge>
    <edge id=":c12_15" function="internal">
        <lane id=":c12_15_0" index="0" speed="13.89" length="6.20" shape="-1.50,2.40 4.70,2.40"/>
        <lane id=":c12_15_1" index="1" speed="13.89" length="6.20" shape="-1.50,5.60 4.70,5.60"/>
        <lane id=":c12_15_2" index="2" speed="13.89" length="6.20" shape="-1.50,8.80 4.70,8.80"/>
        <lane id=":c12_15_3" index="3" speed="13.89" length="6.20" shape="-1.50,12.00 4.70,12.00"/>
        <lane id=":c12_15_4" index="4" speed="13.89" length="6.20" shape="-1.50,15.20 4.70,15.20"/>
        <lane id=":c12_15_5" index="5" speed="13.89" length="6.20" shape="-1.50,18.40 4.70,18.40"/>
    </edge>
    <edge id=":c12_21" function="internal">
        <lane id=":c12_21_0" index="0" allow="pedestrian bicycle" speed="8.95" length="1.37" shape="-1.50,18.40 -0.52,19.35"/>
    </edge>
    <edge id=":c12_22" function="internal">
        <lane id=":c12_22_0" index="0" allow="pedestrian bicycle" speed="8.95" length="20.45" shape="-0.52,19.35 -0.14,19.72 0.82,23.67 1.41,30.27 1.60,39.50"/>
    </edge>
    <edge id=":c13_0" function="internal">
        <lane id=":c13_0_0" index="0" allow="pedestrian bicycle" speed="4.64" length="4.08" shape="24.70,37.60 23.34,37.72 22.38,38.08 21.79,38.67 21.60,39.50"/>
    </edge>
    <edge id=":c13_1" function="internal">
        <lane id=":c13_1_0" index="0" speed="13.89" length="6.20" shape="24.70,37.60 18.50,37.60"/>
        <lane id=":c13_1_1" index="1" speed="13.89" length="6.20" shape="24.70,34.40 18.50,34.40"/>
        <lane id=":c13_1_2" index="2" speed="13.89" length="6.20" shape="24.70,31.20 18.50,31.20"/>
        <lane id=":c13_1_3" index="3" speed="13.89" length="6.20" shape="24.70,28.00 18.50,28.00"/>
        <lane id=":c13_1_4" index="4" speed="13.89" length="6.20" shape="24.70,24.80 18.50,24.80"/>
        <lane id=":c13_1_5" index="5" speed="13.89" length="6.20" shape="24.70,21.60 18.50,21.60"/>
    </edge>
    <edge id=":c13_7" function="internal">
        <lane id=":c13_7_0" index="0" allow="pedestrian bicycle" speed="4.64" length="4.08" shape="21.60,0.50 21.79,1.33 22.38,1.93 23.34,2.28 24.70,2.40"/>
        <lane id=":c13_7_1" index="1" allow="pedestrian bicycle" speed="5.70" length="6.69" shape="21.60,0.50 21.79,2.73 22.38,4.32 23.34,5.28 24.70,5.60"/>
        <lane id=":c13_7_2" index="2" allow="pedestrian bicycle" speed="6.68" length="9.58" shape="21.60,0.50 21.79,4.13 22.38,6.72 23.34,8.28 24.70,8.80"/>
        <lane id=":c13_7_3" index="3" allow="pedestrian bicycle" speed="7.57" length="12.57" shape="21.60,0.50 21.79,5.53 22.38,9.12 23.34,11.28 24.70,12.00"/>
    </edge>
    <edge id=":c13_11" function="internal">
        <lane id=":c13_11_0" index="0" allow="pedestrian bicycle" speed="4.00" length="39.00" shape="21.60,0.50 21.60,39.50"/>
    </edge>
    <edge id=":c13_12" function="internal">
        <lane id=":c13_12_0" index="0" allow="pedestrian bicycle" speed="8.95" length="28.08" shape="21.60,0.50 21.41,12.53 20.83,21.12 19.86,26.28 18.50,28.00"/>
        <lane id=":c13_12_1" index="1" allow="pedestrian bicycle" speed="8.95" length="24.94" shape="21.60,0.50 21.41,11.13 20.83,18.72 19.86,23.28 18.50,24.80"/>
        <lane id=":c13_12_2" index="2" allow="pedestrian bicycle" speed="8.95" length="21.82" shape="21.60,0.50 21.41,9.73 20.83,16.33 19.86,20.28 18.50,21.60"/>
    </edge>
    <edge id=":c13_15" function="internal">
        <lane id=":c13_15_0" index="0" speed="13.89" length="6.20" shape="18.50,2.40 24.70,2.40"/>
        <lane id=":c13_15_1" index="1" speed="13.89" length="6.20" shape="18.50,5.60 24.70,5.60"/>
        <lane id=":c13_15_2" index="2" speed="13.89" length="6.20" shape="18.50,8.80 24.70,8.80"/>
        <lane id=":c13_15_3" index="3" speed="13.89" length="6.20" shape="18.50,12.00 24.70,12.00"/>
        <lane id=":c13_15_4" index="4" speed="13.89" length="6.20" shape="18.50,15.20 24.70,15.20"/>
        <lane id=":c13_15_5" index="5" speed="13.89" length="6.20" shape="18.50,18.40 24.70,18.40"/>
    </edge>
    <edge id=":c13_21" function="internal">
        <lane id=":c13_21_0" index="0" allow="pedestrian bicycle" speed="8.95" length="1.37" shape="18.50,18.40 19.48,19.35"/>
    </edge>
    <edge id=":c13_22" function="internal">
        <lane id=":c13_22_0" index="0" allow="pedestrian bicycle" speed="8.95" length="20.45" shape="19.48,19.35 19.86,19.72 20.82,23.67 21.41,30.27 21.60,39.50"/>
    </edge>
    <edge id=":c2_0" function="internal">
        <lane id=":c2_0_0" index="0" allow="pedestrian bicycle" speed="4.64" length="4.08" shape="-195.30,37.60 -196.66,37.72 -197.62,38.08 -198.21,38.67 -198.40,39.50"/>
    </edge>
    <edge id=":c2_1" function="internal">
        <lane id=":c2_1_0" index="0" speed="13.89" length="6.20" shape="-195.30,37.60 -201.50,37.60"/>
        <lane id=":c2_1_1" index="1" speed="13.89" length="6.20" shape="-195.30,34.40 -201.50,34.40"/>
        <lane id=":c2_1_2" index="2" speed="13.89" length="6.20" shape="-195.30,31.20 -201.50,31.20"/>
        <lane id=":c2_1_3" index="3" speed="13.89" length="6.20" shape="-195.30,28.00 -201.50,28.00"/>
        <lane id=":c2_1_4" index="4" speed="13.89" length="6.20" shape="-195.30,24.80 -201.50,24.80"/>
        <lane id=":c2_1_5" index="5" speed="13.89" length="6.20" shape="-195.30,21.60 -201.50,21.60"/>
    </edge>
    <edge id=":c2_7" function="internal">
        <lane id=":c2_7_0" index="0" allow="pedestrian bicycle" speed="4.64" length="4.08" shape="-198.40,0.50 -198.21,1.33 -197.62,1.93 -196.66,2.28 -195.30,2.40"/>
        <lane id=":c2_7_1" index="1" allow="pedestrian bicycle" speed="5.70" length="6.69" shape="-198.40,0.50 -198.21,2.73 -197.62,4.32 -196.66,5.28 -195.30,5.60"/>
        <lane id=":c2_7_2" index="2" allow="pedestrian bicycle" speed="6.68" length="9.58" shape="-198.40,0.50 -198.21,4.13 -197.62,6.73 -196.66,8.28 -195.30,8.80"/>
        <lane id=":c2_7_3" index="3" allow="pedestrian bicycle" speed="7.57" length="12.57" shape="-198.40,0.50 -198.21,5.53 -197.62,9.12 -196.66,11.28 -195.30,12.00"/>
    </edge>
    <edge id=":c2_11" function="internal">
        <lane id=":c2_11_0" index="0" allow="pedestrian bicycle" speed="4.00" length="39.00" shape="-198.40,0.50 -198.40,39.50"/>
    </edge>
    <edge id=":c2_12" function="internal">
        <lane id=":c2_12_0" index="0" allow="pedestrian bicycle" speed="8.95" length="28.08" shape="-198.40,0.50 -198.59,12.53 -199.18,21.12 -200.14,26.28 -201.50,28.00"/>
        <lane id=":c2_12_1" index="1" allow="pedestrian bicycle" speed="8.95" length="24.94" shape="-198.40,0.50 -198.59,11.13 -199.18,18.72 -200.14,23.28 -201.50,24.80"/>
        <lane id=":c2_12_2" index="2" allow="pedestrian bicycle" speed="8.95" length="21.82" shape="-198.40,0.50 -198.59,9.73 -199.18,16.32 -200.14,20.28 -201.50,21.60"/>
    </edge>
    <edge id=":c2_15" function="internal">
        <lane id=":c2_15_0" index="0" speed="13.89" length="6.20" shape="-201.50,2.40 -195.30,2.40"/>
        <lane id=":c2_15_1" index="1" speed="13.89" length="6.20" shape="-201.50,5.60 -195.30,5.60"/>
        <lane id=":c2_15_2" index="2" speed="13.89" length="6.20" shape="-201.50,8.80 -195.30,8.80"/>
        <lane id=":c2_15_3" index="3" speed="13.89" length="6.20" shape="-201.50,12.00 -195.30,12.00"/>
        <lane id=":c2_15_4" index="4" speed="13.89" length="6.20" shape="-201.50,15.20 -195.30,15.20"/>
        <lane id=":c2_15_5" index="5" speed="13.89" length="6.20" shape="-201.50,18.40 -195.30,18.40"/>
    </edge>
    <edge id=":c2_21" function="internal">
        <lane id=":c2_21_0" index="0" allow="pedestrian bicycle" speed="8.95" length="1.37" shape="-201.50,18.40 -200.52,19.35"/>
    </edge>
    <edge id=":c2_22" function="internal">
        <lane id=":c2_22_0" index="0" allow="pedestrian bicycle" speed="8.95" length="20.45" shape="-200.52,19.35 -200.14,19.72 -199.17,23.67 -198.59,30.27 -198.40,39.50"/>
    </edge>
    <edge id=":c3_0" function="internal">
        <lane id=":c3_0_0" index="0" allow="pedestrian bicycle" speed="4.64" length="4.08" shape="-175.30,37.60 -176.66,37.72 -177.62,38.08 -178.21,38.67 -178.40,39.50"/>
    </edge>
    <edge id=":c3_1" function="internal">
        <lane id=":c3_1_0" index="0" speed="13.89" length="6.20" shape="-175.30,37.60 -181.50,37.60"/>
        <lane id=":c3_1_1" index="1" speed="13.89" length="6.20" shape="-175.30,34.40 -181.50,34.40"/>
        <lane id=":c3_1_2" index="2" speed="13.89" length="6.20" shape="-175.30,31.20 -181.50,31.20"/>
        <lane id=":c3_1_3" index="3" speed="13.89" length="6.20" shape="-175.30,28.00 -181.50,28.00"/>
        <lane id=":c3_1_4" index="4" speed="13.89" length="6.20" shape="-175.30,24.80 -181.50,24.80"/>
        <lane id=":c3_1_5" index="5" speed="13.89" length="6.20" shape="-175.30,21.60 -181.50,21.60"/>
    </edge>
    <edge id=":c3_7" function="internal">
        <lane id=":c3_7_0" index="0" allow="pedestrian bicycle" speed="4.64" length="4.08" shape="-178.40,0.50 -178.21,1.33 -177.62,1.93 -176.66,2.28 -175.30,2.40"/>
        <lane id=":c3_7_1" index="1" allow="pedestrian bicycle" speed="5.70" length="6.69" shape="-178.40,0.50 -178.21,2.73 -177.62,4.32 -176.66,5.28 -175.30,5.60"/>
        <lane id=":c3_7_2" index="2" allow="pedestrian bicycle" speed="6.68" length="9.58" shape="-178.40,0.50 -178.21,4.13 -177.62,6.73 -176.66,8.28 -175.30,8.80"/>
        <lane id=":c3_7_3" index="3" allow="pedestrian bicycle" speed="7.57" length="12.57" shape="-178.40,0.50 -178.21,5.53 -177.62,9.12 -176.66,11.28 -175.30,12.00"/>
    </edge>
    <edge id=":c3_11" function="internal">
        <lane id=":c3_11_0" index="0" allow="pedestrian bicycle" speed="4.00" length="39.00" shape="-178.40,0.50 -178.40,39.50"/>
    </edge>
    <edge id=":c3_12" function="internal">
        <lane id=":c3_12_0" index="0" allow="pedestrian bicycle" speed="8.95" length="28.08" shape="-178.40,0.50 -178.59,12.53 -179.18,21.12 -180.14,26.28 -181.50,28.00"/>
        <lane id=":c3_12_1" index="1" allow="pedestrian bicycle" speed="8.95" length="24.94" shape="-178.40,0.50 -178.59,11.13 -179.18,18.72 -180.14,23.28 -181.50,24.80"/>
        <lane id=":c3_12_2" index="2" allow="pedestrian bicycle" speed="8.95" length="21.82" shape="-178.40,0.50 -178.59,9.73 -179.18,16.32 -180.14,20.28 -181.50,21.60"/>
    </edge>
    <edge id=":c3_15" function="internal">
        <lane id=":c3_15_0" index="0" speed="13.89" length="6.20" shape="-181.50,2.40 -175.30,2.40"/>
        <lane id=":c3_15_1" index="1" speed="13.89" length="6.20" shape="-181.50,5.60 -175.30,5.60"/>
        <lane id=":c3_15_2" index="2" speed="13.89" length="6.20" shape="-181.50,8.80 -175.30,8.80"/>
        <lane id=":c3_15_3" index="3" speed="13.89" length="6.20" shape="-181.50,12.00 -175.30,12.00"/>
        <lane id=":c3_15_4" index="4" speed="13.89" length="6.20" shape="-181.50,15.20 -175.30,15.20"/>
        <lane id=":c3_15_5" index="5" speed="13.89" length="6.20" shape="-181.50,18.40 -175.30,18.40"/>
    </edge>
    <edge id=":c3_21" function="internal">
        <lane id=":c3_21_0" index="0" allow="pedestrian bicycle" speed="8.95" length="1.37" shape="-181.50,18.40 -180.52,19.35"/>
    </edge>
    <edge id=":c3_22" function="internal">
        <lane id=":c3_22_0" index="0" allow="pedestrian bicycle" speed="8.95" length="20.45" shape="-180.52,19.35 -180.14,19.72 -179.17,23.67 -178.59,30.27 -178.40,39.50"/>
    </edge>
    <edge id=":c4_0" function="internal">
        <lane id=":c4_0_0" index="0" allow="pedestrian bicycle" speed="4.64" length="4.08" shape="-155.30,37.60 -156.66,37.72 -157.62,38.08 -158.21,38.67 -158.40,39.50"/>
    </edge>
    <edge id=":c4_1" function="internal">
        <lane id=":c4_1_0" index="0" speed="13.89" length="6.20" shape="-155.30,37.60 -161.50,37.60"/>
        <lane id=":c4_1_1" index="1" speed="13.89" length="6.20" shape="-155.30,34.40 -161.50,34.40"/>
        <lane id=":c4_1_2" index="2" speed="13.89" length="6.20" shape="-155.30,31.20 -161.50,31.20"/>
        <lane id=":c4_1_3" index="3" speed="13.89" length="6.20" shape="-155.30,28.00 -161.50,28.00"/>
        <lane id=":c4_1_4" index="4" speed="13.89" length="6.20" shape="-155.30,24.80 -161.50,24.80"/>
        <lane id=":c4_1_5" index="5" speed="13.89" length="6.20" shape="-155.30,21.60 -161.50,21.60"/>
    </edge>
    <edge id=":c4_7" function="internal">
        <lane id=":c4_7_0" index="0" allow="pedestrian bicycle" speed="4.64" length="4.08" shape="-158.40,0.50 -158.21,1.33 -157.62,1.93 -156.66,2.28 -155.30,2.40"/>
        <lane id=":c4_7_1" index="1" allow="pedestrian bicycle" speed="5.70" length="6.69" shape="-158.40,0.50 -158.21,2.73 -157.62,4.32 -156.66,5.28 -155.30,5.60"/>
        <lane id=":c4_7_2" index="2" allow="pedestrian bicycle" speed="6.68" length="9.58" shape="-158.40,0.50 -158.21,4.13 -157.62,6.73 -156.66,8.28 -155.30,8.80"/>
        <lane id=":c4_7_3" index="3" allow="pedestrian bicycle" speed="7.57" length="12.57" shape="-158.40,0.50 -158.21,5.53 -157.62,9.12 -156.66,11.28 -155.30,12.00"/>
    </edge>
    <edge id=":c4_11" function="internal">
        <lane id=":c4_11_0" index="0" allow="pedestrian bicycle" speed="4.00" length="39.00" shape="-158.40,0.50 -158.40,39.50"/>
    </edge>
    <edge id=":c4_12" function="internal">
        <lane id=":c4_12_0" index="0" allow="pedestrian bicycle" speed="8.95" length="28.08" shape="-158.40,0.50 -158.59,12.53 -159.18,21.12 -160.14,26.28 -161.50,28.00"/>
        <lane id=":c4_12_1" index="1" allow="pedestrian bicycle" speed="8.95" length="24.94" shape="-158.40,0.50 -158.59,11.13 -159.18,18.72 -160.14,23.28 -161.50,24.80"/>
        <lane id=":c4_12_2" index="2" allow="pedestrian bicycle" speed="8.95" length="21.82" shape="-158.40,0.50 -158.59,9.73 -159.18,16.32 -160.14,20.28 -161.50,21.60"/>
    </edge>
    <edge id=":c4_15" function="internal">
        <lane id=":c4_15_0" index="0" speed="13.89" length="6.20" shape="-161.50,2.40 -155.30,2.40"/>
        <lane id=":c4_15_1" index="1" speed="13.89" length="6.20" shape="-161.50,5.60 -155.30,5.60"/>
        <lane id=":c4_15_2" index="2" speed="13.89" length="6.20" shape="-161.50,8.80 -155.30,8.80"/>
        <lane id=":c4_15_3" index="3" speed="13.89" length="6.20" shape="-161.50,12.00 -155.30,12.00"/>
        <lane id=":c4_15_4" index="4" speed="13.89" length="6.20" shape="-161.50,15.20 -155.30,15.20"/>
        <lane id=":c4_15_5" index="5" speed="13.89" length="6.20" shape="-161.50,18.40 -155.30,18.40"/>
    </edge>
    <edge id=":c4_21" function="internal">
        <lane id=":c4_21_0" index="0" allow="pedestrian bicycle" speed="8.95" length="1.37" shape="-161.50,18.40 -160.52,19.35"/>
    </edge>
    <edge id=":c4_22" function="internal">
        <lane id=":c4_22_0" index="0" allow="pedestrian bicycle" speed="8.95" length="20.45" shape="-160.52,19.35 -160.14,19.72 -159.18,23.67 -158.59,30.27 -158.40,39.50"/>
    </edge>
    <edge id=":c5_0" function="internal">
        <lane id=":c5_0_0" index="0" allow="pedestrian bicycle" speed="4.64" length="4.08" shape="-135.30,37.60 -136.66,37.72 -137.62,38.08 -138.21,38.67 -138.40,39.50"/>
    </edge>
    <edge id=":c5_1" function="internal">
        <lane id=":c5_1_0" index="0" speed="13.89" length="6.20" shape="-135.30,37.60 -141.50,37.60"/>
        <lane id=":c5_1_1" index="1" speed="13.89" length="6.20" shape="-135.30,34.40 -141.50,34.40"/>
        <lane id=":c5_1_2" index="2" speed="13.89" length="6.20" shape="-135.30,31.20 -141.50,31.20"/>
        <lane id=":c5_1_3" index="3" speed="13.89" length="6.20" shape="-135.30,28.00 -141.50,28.00"/>
        <lane id=":c5_1_4" index="4" speed="13.89" length="6.20" shape="-135.30,24.80 -141.50,24.80"/>
        <lane id=":c5_1_5" index="5" speed="13.89" length="6.20" shape="-135.30,21.60 -141.50,21.60"/>
    </edge>
    <edge id=":c5_7" function="internal">
        <lane id=":c5_7_0" index="0" allow="pedestrian bicycle" speed="4.64" length="4.07" shape="-138.40,0.51 -138.21,1.34 -137.62,1.93 -136.66,2.28 -135.30,2.40"/>