<?xml version="1.0" encoding="UTF-8"?>

<!-- generated on 2023-01-25 19:37:12 by Eclipse SUMO netedit Version 1.15.0
-->

<routes xmlns:xsi="http://www.w3.org/2001/XMLSchema-instance" xsi:noNamespaceSchemaLocation="http://sumo.dlr.de/xsd/routes_file.xsd">
    <!-- Vehicles, persons and containers (sorted by depart) -->
    <trip id="ped0" type="DEFAULT_PEDTYPE" depart="0.00" from="g45" to="c5n9" via="g5s5 s5c5"/>
</routes>
