<?xml version="1.0" encoding="UTF-8"?>

<!-- generated on 2023-01-25 19:53:13 by Eclipse SUMO GUI Version 1.15.0
-->

<configuration xmlns:xsi="http://www.w3.org/2001/XMLSchema-instance" xsi:noNamespaceSchemaLocation="http://sumo.dlr.de/xsd/sumoConfiguration.xsd">

    <input>
        <net-file value="jaywalk.net.xml"/>
        <route-files value="jaywalk_ped1.rou.xml"/>
    </input>

</configuration>
