<?xml version="1.0" encoding="UTF-8"?>

<!-- generated on 2023-01-20 08:40:32 by Eclipse SUMO netedit Version 1.15.0
-->

<routes xmlns:xsi="http://www.w3.org/2001/XMLSchema-instance" xsi:noNamespaceSchemaLocation="http://sumo.dlr.de/xsd/routes_file.xsd">
    <!-- Vehicles, persons and containers (sorted by depart) -->
    <person id="p_w2e" depart="0.00">
        <personTrip from="E0" to="E2" lines="ANY"/>
    </person>
</routes>
