<?xml version="1.0" encoding="UTF-8"?>

<!-- generated on 2023-01-20 09:12:02 by Eclipse SUMO netedit Version 1.15.0
-->

<routes xmlns:xsi="http://www.w3.org/2001/XMLSchema-instance" xsi:noNamespaceSchemaLocation="http://sumo.dlr.de/xsd/routes_file.xsd">
    <!-- Vehicles, persons and containers (sorted by depart) -->
    <trip id="t_0" type="DEFAULT_PEDTYPE" depart="0.00" fromJunction="J10" toJunction="J13"/>
    <person id="p_0" depart="0.00">
        <personTrip from="E5" to="E7" lines="ANY"/>
    </person>
</routes>
