<?xml version="1.0" encoding="UTF-8"?>

<!-- generated on 2023-01-25 07:33:43 by Eclipse SUMO netedit Version 1.15.0
-->

<routes xmlns:xsi="http://www.w3.org/2001/XMLSchema-instance" xsi:noNamespaceSchemaLocation="http://sumo.dlr.de/xsd/routes_file.xsd">
    <!-- Vehicles, persons and containers (sorted by depart) -->
    <trip id="ped_0" type="DEFAULT_PEDTYPE" depart="0.00" from="ped_sw2cs" to="ped_c2cn"/>
</routes>
