<?xml version="1.0" encoding="UTF-8"?>

<!-- generated on 2023-01-18 23:50:11 by Eclipse SUMO netedit Version 1.15.0
-->

<routes xmlns:xsi="http://www.w3.org/2001/XMLSchema-instance" xsi:noNamespaceSchemaLocation="http://sumo.dlr.de/xsd/routes_file.xsd">
    <!-- Vehicles, persons and containers (sorted by depart) -->
    <trip id="v0_w2e" depart="0.00" from="w2c" to="c2e"/>
</routes>
