<?xml version="1.0" encoding="UTF-8"?>

<!-- generated on 2023-01-18 11:06:51 by Eclipse SUMO netedit Version 1.15.0
<configuration xmlns:xsi="http://www.w3.org/2001/XMLSchema-instance" xsi:noNamespaceSchemaLocation="http://sumo.dlr.de/xsd/netconvertConfiguration.xsd">

    <output>
        <output-file value="/home/xuhuizhang/intention_estimation/simulation/intersection/intersection_5lanes.net.xml"/>
    </output>

    <processing>
        <offset.disable-normalization value="true"/>
    </processing>

    <junctions>
        <no-turnarounds value="true"/>
    </junctions>

</configuration>
-->

<net version="1.9" junctionCornerDetail="5" limitTurnSpeed="5.50" xmlns:xsi="http://www.w3.org/2001/XMLSchema-instance" xsi:noNamespaceSchemaLocation="http://sumo.dlr.de/xsd/net_file.xsd">

    <location netOffset="0.00,0.00" convBoundary="-200.00,-200.00,200.00,200.00" origBoundary="10000000000.00,10000000000.00,-10000000000.00,-10000000000.00" projParameter="!"/>

    <edge id=":c_0" function="internal">
        <lane id=":c_0_0" index="0" speed="6.51" length="9.03" shape="-14.40,20.00 -14.75,17.55 -15.80,15.80 -17.55,14.75 -20.00,14.40"/>
        <lane id=":c_0_1" index="1" speed="7.33" length="11.73" shape="-14.40,20.00 -14.75,16.15 -15.80,13.40 -17.55,11.75 -20.00,11.20"/>
    </edge>
    <edge id=":c_2" function="internal">
        <lane id=":c_2_0" index="0" speed="8.00" length="40.13" shape="-14.40,20.00 -11.20,-20.00"/>
        <lane id=":c_2_1" index="1" speed="8.00" length="40.13" shape="-11.20,20.00 -8.00,-20.00"/>
        <lane id=":c_2_2" index="2" speed="8.00" length="40.13" shape="-8.00,20.00 -4.80,-20.00"/>
        <lane id=":c_2_3" index="3" speed="8.00" length="40.13" shape="-4.80,20.00 -1.60,-20.00"/>
    </edge>
    <edge id=":c_6" function="internal">
        <lane id=":c_6_0" index="0" speed="8.00" length="40.00" shape="-4.80,20.00 -3.25,9.15 1.40,1.40 9.15,-3.25 20.00,-4.80"/>
        <lane id=":c_6_1" index="1" speed="8.00" length="34.84" shape="-1.60,20.00 -0.25,10.55 3.80,3.80 10.55,-0.25 20.00,-1.60"/>
    </edge>
    <edge id=":c_8" function="internal">
        <lane id=":c_8_0" index="0" speed="6.51" length="9.03" shape="20.00,14.40 17.55,14.75 15.80,15.80 14.75,17.55 14.40,20.00"/>
        <lane id=":c_8_1" index="1" speed="7.33" length="11.73" shape="20.00,14.40 16.15,14.75 13.40,15.80 11.75,17.55 11.20,20.00"/>
    </edge>
    <edge id=":c_10" function="internal">
        <lane id=":c_10_0" index="0" speed="8.00" length="40.13" shape="20.00,14.40 -20.00,11.20"/>
        <lane id=":c_10_1" index="1" speed="8.00" length="40.13" shape="20.00,11.20 -20.00,8.00"/>
        <lane id=":c_10_2" index="2" speed="8.00" length="40.13" shape="20.00,8.00 -20.00,4.80"/>
        <lane id=":c_10_3" index="3" speed="8.00" length="40.13" shape="20.00,4.80 -20.00,1.60"/>
    </edge>
    <edge id=":c_14" function="internal">
        <lane id=":c_14_0" index="0" speed="8.00" length="40.00" shape="20.00,4.80 9.15,3.25 1.40,-1.40 -3.25,-9.15 -4.80,-20.00"/>
        <lane id=":c_14_1" index="1" speed="8.00" length="34.84" shape="20.00,1.60 10.55,0.25 3.80,-3.80 -0.25,-10.55 -1.60,-20.00"/>
    </edge>
    <edge id=":c_16" function="internal">
        <lane id=":c_16_0" index="0" speed="6.51" length="9.03" shape="14.40,-20.00 14.75,-17.55 15.80,-15.80 17.55,-14.75 20.00,-14.40"/>
        <lane id=":c_16_1" index="1" speed="7.33" length="11.73" shape="14.40,-20.00 14.75,-16.15 15.80,-13.40 17.55,-11.75 20.00,-11.20"/>
    </edge>
    <edge id=":c_18" function="internal">
        <lane id=":c_18_0" index="0" speed="8.00" length="40.13" shape="14.40,-20.00 11.20,20.00"/>
        <lane id=":c_18_1" index="1" speed="8.00" length="40.13" shape="11.20,-20.00 8.00,20.00"/>
        <lane id=":c_18_2" index="2" speed="8.00" length="40.13" shape="8.00,-20.00 4.80,20.00"/>
        <lane id=":c_18_3" index="3" speed="8.00" length="40.13" shape="4.80,-20.00 1.60,20.00"/>
    </edge>
    <edge id=":c_22" function="internal">
        <lane id=":c_22_0" index="0" speed="8.00" length="40.00" shape="4.80,-20.00 3.25,-9.15 -1.40,-1.40 -9.15,3.25 -20.00,4.80"/>
        <lane id=":c_22_1" index="1" speed="8.00" length="34.84" shape="1.60,-20.00 0.25,-10.55 -3.80,-3.80 -10.55,0.25 -20.00,1.60"/>
    </edge>
    <edge id=":c_24" function="internal">
        <lane id=":c_24_0" index="0" speed="6.51" length="9.03" shape="-20.00,-14.40 -17.55,-14.75 -15.80,-15.80 -14.75,-17.55 -14.40,-20.00"/>
        <lane id=":c_24_1" index="1" speed="7.33" length="11.73" shape="-20.00,-14.40 -16.15,-14.75 -13.40,-15.80 -11.75,-17.55 -11.20,-20.00"/>
    </edge>
    <edge id=":c_26" function="internal">
        <lane id=":c_26_0" index="0" speed="8.00" length="40.13" shape="-20.00,-14.40 20.00,-11.20"/>
        <lane id=":c_26_1" index="1" speed="8.00" length="40.13" shape="-20.00,-11.20 20.00,-8.00"/>
        <lane id=":c_26_2" index="2" speed="8.00" length="40.13" shape="-20.00,-8.00 20.00,-4.80"/>
        <lane id=":c_26_3" index="3" speed="8.00" length="40.13" shape="-20.00,-4.80 20.00,-1.60"/>
    </edge>
    <edge id=":c_30" function="internal">
        <lane id=":c_30_0" index="0" speed="8.00" length="40.00" shape="-20.00,-4.80 -9.15,-3.25 -1.40,1.40 3.25,9.15 4.80,20.00"/>
        <lane id=":c_30_1" index="1" speed="8.00" length="34.84" shape="-20.00,-1.60 -10.55,-0.25 -3.80,3.80 0.25,10.55 1.60,20.00"/>
    </edge>

    <edge id="c2e" from="c" to="e" priority="-1" spreadType="roadCenter">
        <lane id="c2e_0" index="0" speed="8.00" length="180.00" shape="20.00,-14.40 200.00,-14.40"/>
        <lane id="c2e_1" index="1" speed="8.00" length="180.00" shape="20.00,-11.20 200.00,-11.20"/>
        <lane id="c2e_2" index="2" speed="8.00" length="180.00" shape="20.00,-8.00 200.00,-8.00"/>
        <lane id="c2e_3" index="3" speed="8.00" length="180.00" shape="20.00,-4.80 200.00,-4.80"/>
        <lane id="c2e_4" index="4" speed="8.00" length="180.00" shape="20.00,-1.60 200.00,-1.60"/>
    </edge>
    <edge id="c2n" from="c" to="n" priority="-1" spreadType="roadCenter">
        <lane id="c2n_0" index="0" speed="8.00" length="180.00" shape="14.40,20.00 14.40,200.00"/>
        <lane id="c2n_1" index="1" speed="8.00" length="180.00" shape="11.20,20.00 11.20,200.00"/>
        <lane id="c2n_2" index="2" speed="8.00" length="180.00" shape="8.00,20.00 8.00,200.00"/>
        <lane id="c2n_3" index="3" speed="8.00" length="180.00" shape="4.80,20.00 4.80,200.00"/>
        <lane id="c2n_4" index="4" speed="8.00" length="180.00" shape="1.60,20.00 1.60,200.00"/>
    </edge>
    <edge id="c2s" from="c" to="s" priority="-1" spreadType="roadCenter">
        <lane id="c2s_0" index="0" speed="8.00" length="180.00" shape="-14.40,-20.00 -14.40,-200.00"/>
        <lane id="c2s_1" index="1" speed="8.00" length="180.00" shape="-11.20,-20.00 -11.20,-200.00"/>
        <lane id="c2s_2" index="2" speed="8.00" length="180.00" shape="-8.00,-20.00 -8.00,-200.00"/>
        <lane id="c2s_3" index="3" speed="8.00" length="180.00" shape="-4.80,-20.00 -4.80,-200.00"/>
        <lane id="c2s_4" index="4" speed="8.00" length="180.00" shape="-1.60,-20.00 -1.60,-200.00"/>
    </edge>
    <edge id="c2w" from="c" to="w" priority="-1" spreadType="roadCenter">
        <lane id="c2w_0" index="0" speed="8.00" length="180.00" shape="-20.00,14.40 -200.00,14.40"/>
        <lane id="c2w_1" index="1" speed="8.00" length="180.00" shape="-20.00,11.20 -200.00,11.20"/>
        <lane id="c2w_2" index="2" speed="8.00" length="180.00" shape="-20.00,8.00 -200.00,8.00"/>
        <lane id="c2w_3" index="3" speed="8.00" length="180.00" shape="-20.00,4.80 -200.00,4.80"/>
        <lane id="c2w_4" index="4" speed="8.00" length="180.00" shape="-20.00,1.60 -200.00,1.60"/>
    </edge>
    <edge id="e2c" from="e" to="c" priority="-1" spreadType="roadCenter">
        <lane id="e2c_0" index="0" speed="8.00" length="180.00" shape="200.00,14.40 20.00,14.40"/>
        <lane id="e2c_1" index="1" speed="8.00" length="180.00" shape="200.00,11.20 20.00,11.20"/>
        <lane id="e2c_2" index="2" speed="8.00" length="180.00" shape="200.00,8.00 20.00,8.00"/>
        <lane id="e2c_3" index="3" speed="8.00" length="180.00" shape="200.00,4.80 20.00,4.80"/>
        <lane id="e2c_4" index="4" speed="8.00" length="180.00" shape="200.00,1.60 20.00,1.60"/>
    </edge>
    <edge id="n2c" from="n" to="c" priority="-1">
        <lane id="n2c_0" index="0" speed="8.00" length="180.00" shape="-14.40,200.00 -14.40,20.00"/>
        <lane id="n2c_1" index="1" speed="8.00" length="180.00" shape="-11.20,200.00 -11.20,20.00"/>
        <lane id="n2c_2" index="2" speed="8.00" length="180.00" shape="-8.00,200.00 -8.00,20.00"/>
        <lane id="n2c_3" index="3" speed="8.00" length="180.00" shape="-4.80,200.00 -4.80,20.00"/>
        <lane id="n2c_4" index="4" speed="8.00" length="180.00" shape="-1.60,200.00 -1.60,20.00"/>
    </edge>
    <edge id="s2c" from="s" to="c" priority="-1" spreadType="roadCenter">
        <lane id="s2c_0" index="0" speed="8.00" length="180.00" shape="14.40,-200.00 14.40,-20.00"/>
        <lane id="s2c_1" index="1" speed="8.00" length="180.00" shape="11.20,-200.00 11.20,-20.00"/>
        <lane id="s2c_2" index="2" speed="8.00" length="180.00" shape="8.00,-200.00 8.00,-20.00"/>
        <lane id="s2c_3" index="3" speed="8.00" length="180.00" shape="4.80,-200.00 4.80,-20.00"/>
        <lane id="s2c_4" index="4" speed="8.00" length="180.00" shape="1.60,-200.00 1.60,-20.00"/>
    </edge>
    <edge id="w2c" from="w" to="c" priority="-1" spreadType="roadCenter">
        <lane id="w2c_0" index="0" speed="8.00" length="180.00" shape="-200.00,-14.40 -20.00,-14.40"/>
        <lane id="w2c_1" index="1" speed="8.00" length="180.00" shape="-200.00,-11.20 -20.00,-11.20"/>
        <lane id="w2c_2" index="2" speed="8.00" length="180.00" shape="-200.00,-8.00 -20.00,-8.00"/>
        <lane id="w2c_3" index="3" speed="8.00" length="180.00" shape="-200.00,-4.80 -20.00,-4.80"/>
        <lane id="w2c_4" index="4" speed="8.00" length="180.00" shape="-200.00,-1.60 -20.00,-1.60"/>
    </edge>

    <junction id="c" type="right_before_left" x="0.00" y="0.00" incLanes="n2c_0 n2c_1 n2c_2 n2c_3 n2c_4 e2c_0 e2c_1 e2c_2 e2c_3 e2c_4 s2c_0 s2c_1 s2c_2 s2c_3 s2c_4 w2c_0 w2c_1 w2c_2 w2c_3 w2c_4" intLanes=":c_0_0 :c_0_1 :c_2_0 :c_2_1 :c_2_2 :c_2_3 :c_6_0 :c_6_1 :c_8_0 :c_8_1 :c_10_0 :c_10_1 :c_10_2 :c_10_3 :c_14_0 :c_14_1 :c_16_0 :c_16_1 :c_18_0 :c_18_1 :c_18_2 :c_18_3 :c_22_0 :c_22_1 :c_24_0 :c_24_1 :c_26_0 :c_26_1 :c_26_2 :c_26_3 :c_30_0 :c_30_1" shape="-16.00,20.00 16.00,20.00 16.44,17.78 17.00,17.00 17.78,16.44 18.78,16.11 20.00,16.00 20.00,-16.00 17.78,-16.44 17.00,-17.00 16.44,-17.78 16.11,-18.78 16.00,-20.00 -16.00,-20.00 -16.44,-17.78 -17.00,-17.00 -17.78,-16.44 -18.78,-16.11 -20.00,-16.00 -20.00,16.00 -17.78,16.44 -17.00,17.00 -16.44,17.78 -16.11,18.78">
        <request index="0"  response="00000000000000000000000000000000" foes="00000000000000000011110000000000" cont="0"/>
        <request index="1"  response="00000000000000000000000000000000" foes="00000000000000000011110000000000" cont="0"/>
        <request index="2"  response="11111111000000000000000000000000" foes="11111111110000001111110000000000" cont="0"/>
        <request index="3"  response="11111111000000000000000000000000" foes="11111111110000001111110000000000" cont="0"/>
        <request index="4"  response="11111111000000000000000000000000" foes="11111111110000001111110000000000" cont="0"/>
        <request index="5"  response="11111111000000000000000000000000" foes="11111111110000001111110000000000" cont="0"/>
        <request index="6"  response="11111100001111000000000000000000" foes="11111100001111001111110000000000" cont="0"/>
        <request index="7"  response="11111100001111000000000000000000" foes="11111100001111001111110000000000" cont="0"/>
        <request index="8"  response="00000000000000000000000000000000" foes="00000000001111000000000000000000" cont="0"/>
        <request index="9"  response="00000000000000000000000000000000" foes="00000000001111000000000000000000" cont="0"/>
        <request index="10" response="00000000000000000000000011111111" foes="11000000111111000000000011111111" cont="0"/>
        <request index="11" response="00000000000000000000000011111111" foes="11000000111111000000000011111111" cont="0"/>
        <request index="12" response="00000000000000000000000011111111" foes="11000000111111000000000011111111" cont="0"/>
        <request index="13" response="00000000000000000000000011111111" foes="11000000111111000000000011111111" cont="0"/>
        <request index="14" response="00111100000000000000000011111100" foes="00111100111111000000000011111100" cont="0"/>
        <request index="15" response="00111100000000000000000011111100" foes="00111100111111000000000011111100" cont="0"/>
        <request index="16" response="00000000000000000000000000000000" foes="00111100000000000000000000000000" cont="0"/>
        <request index="17" response="00000000000000000000000000000000" foes="00111100000000000000000000000000" cont="0"/>
        <request index="18" response="00000000000000001111111100000000" foes="11111100000000001111111111000000" cont="0"/>
        <request index="19" response="00000000000000001111111100000000" foes="11111100000000001111111111000000" cont="0"/>
        <request index="20" response="00000000000000001111111100000000" foes="11111100000000001111111111000000" cont="0"/>
        <request index="21" response="00000000000000001111111100000000" foes="11111100000000001111111111000000" cont="0"/>
        <request index="22" response="00000000000000001111110000111100" foes="11111100000000001111110000111100" cont="0"/>
        <request index="23" response="00000000000000001111110000111100" foes="11111100000000001111110000111100" cont="0"/>
        <request index="24" response="00000000000000000000000000000000" foes="00000000000000000000000000111100" cont="0"/>
        <request index="25" response="00000000000000000000000000000000" foes="00000000000000000000000000111100" cont="0"/>
        <request index="26" response="00000000111111110000000000000000" foes="00000000111111111100000011111100" cont="0"/>
        <request index="27" response="00000000111111110000000000000000" foes="00000000111111111100000011111100" cont="0"/>
        <request index="28" response="00000000111111110000000000000000" foes="00000000111111111100000011111100" cont="0"/>
        <request index="29" response="00000000111111110000000000000000" foes="00000000111111111100000011111100" cont="0"/>
        <request index="30" response="00000000111111000011110000000000" foes="00000000111111000011110011111100" cont="0"/>
        <request index="31" response="00000000111111000011110000000000" foes="00000000111111000011110011111100" cont="0"/>
    </junction>
    <junction id="e" type="dead_end" x="200.00" y="0.00" incLanes="c2e_0 c2e_1 c2e_2 c2e_3 c2e_4" intLanes="" shape="200.00,0.00 200.00,-16.00 200.00,0.00"/>
    <junction id="n" type="dead_end" x="0.00" y="200.00" incLanes="c2n_0 c2n_1 c2n_2 c2n_3 c2n_4" intLanes="" shape="0.00,200.00 16.00,200.00 0.00,200.00"/>
    <junction id="s" type="dead_end" x="0.00" y="-200.00" incLanes="c2s_0 c2s_1 c2s_2 c2s_3 c2s_4" intLanes="" shape="0.00,-200.00 -16.00,-200.00 0.00,-200.00"/>
    <junction id="w" type="dead_end" x="-200.00" y="0.00" incLanes="c2w_0 c2w_1 c2w_2 c2w_3 c2w_4" intLanes="" shape="-200.00,0.00 -200.00,16.00 -200.00,0.00"/>

    <connection from="e2c" to="c2n" fromLane="0" toLane="0" via=":c_8_0" dir="r" state="M"/>
    <connection from="e2c" to="c2n" fromLane="0" toLane="1" via=":c_8_1" dir="r" state="M"/>
    <connection from="e2c" to="c2w" fromLane="0" toLane="1" via=":c_10_0" dir="s" state="="/>
    <connection from="e2c" to="c2w" fromLane="1" toLane="2" via=":c_10_1" dir="s" state="="/>
    <connection from="e2c" to="c2w" fromLane="2" toLane="3" via=":c_10_2" dir="s" state="="/>
    <connection from="e2c" to="c2w" fromLane="3" toLane="4" via=":c_10_3" dir="s" state="="/>
    <connection from="e2c" to="c2s" fromLane="3" toLane="3" via=":c_14_0" dir="l" state="="/>
    <connection from="e2c" to="c2s" fromLane="4" toLane="4" via=":c_14_1" dir="l" state="="/>
    <connection from="n2c" to="c2w" fromLane="0" toLane="0" via=":c_0_0" dir="r" state="M"/>
    <connection from="n2c" to="c2w" fromLane="0" toLane="1" via=":c_0_1" dir="r" state="M"/>
    <connection from="n2c" to="c2s" fromLane="0" toLane="1" via=":c_2_0" dir="s" state="="/>
    <connection from="n2c" to="c2s" fromLane="1" toLane="2" via=":c_2_1" dir="s" state="="/>
    <connection from="n2c" to="c2s" fromLane="2" toLane="3" via=":c_2_2" dir="s" state="="/>
    <connection from="n2c" to="c2s" fromLane="3" toLane="4" via=":c_2_3" dir="s" state="="/>
    <connection from="n2c" to="c2e" fromLane="3" toLane="3" via=":c_6_0" dir="l" state="="/>
    <connection from="n2c" to="c2e" fromLane="4" toLane="4" via=":c_6_1" dir="l" state="="/>
    <connection from="s2c" to="c2e" fromLane="0" toLane="0" via=":c_16_0" dir="r" state="M"/>
    <connection from="s2c" to="c2e" fromLane="0" toLane="1" via=":c_16_1" dir="r" state="M"/>
    <connection from="s2c" to="c2n" fromLane="0" toLane="1" via=":c_18_0" dir="s" state="="/>
    <connection from="s2c" to="c2n" fromLane="1" toLane="2" via=":c_18_1" dir="s" state="="/>
    <connection from="s2c" to="c2n" fromLane="2" toLane="3" via=":c_18_2" dir="s" state="="/>
    <connection from="s2c" to="c2n" fromLane="3" toLane="4" via=":c_18_3" dir="s" state="="/>
    <connection from="s2c" to="c2w" fromLane="3" toLane="3" via=":c_22_0" dir="l" state="="/>
    <connection from="s2c" to="c2w" fromLane="4" toLane="4" via=":c_22_1" dir="l" state="="/>
    <connection from="w2c" to="c2s" fromLane="0" toLane="0" via=":c_24_0" dir="r" state="M"/>
    <connection from="w2c" to="c2s" fromLane="0" toLane="1" via=":c_24_1" dir="r" state="M"/>
    <connection from="w2c" to="c2e" fromLane="0" toLane="1" via=":c_26_0" dir="s" state="="/>
    <connection from="w2c" to="c2e" fromLane="1" toLane="2" via=":c_26_1" dir="s" state="="/>
    <connection from="w2c" to="c2e" fromLane="2" toLane="3" via=":c_26_2" dir="s" state="="/>
    <connection from="w2c" to="c2e" fromLane="3" toLane="4" via=":c_26_3" dir="s" state="="/>
    <connection from="w2c" to="c2n" fromLane="3" toLane="3" via=":c_30_0" dir="l" state="="/>
    <connection from="w2c" to="c2n" fromLane="4" toLane="4" via=":c_30_1" dir="l" state="="/>

    <connection from=":c_0" to="c2w" fromLane="0" toLane="0" dir="r" state="M"/>
    <connection from=":c_0" to="c2w" fromLane="1" toLane="1" dir="r" state="M"/>
    <connection from=":c_2" to="c2s" fromLane="0" toLane="1" dir="s" state="M"/>
    <connection from=":c_2" to="c2s" fromLane="1" toLane="2" dir="s" state="M"/>
    <connection from=":c_2" to="c2s" fromLane="2" toLane="3" dir="s" state="M"/>
    <connection from=":c_2" to="c2s" fromLane="3" toLane="4" dir="s" state="M"/>
    <connection from=":c_6" to="c2e" fromLane="0" toLane="3" dir="l" state="M"/>
    <connection from=":c_6" to="c2e" fromLane="1" toLane="4" dir="l" state="M"/>
    <connection from=":c_8" to="c2n" fromLane="0" toLane="0" dir="r" state="M"/>
    <connection from=":c_8" to="c2n" fromLane="1" toLane="1" dir="r" state="M"/>
    <connection from=":c_10" to="c2w" fromLane="0" toLane="1" dir="s" state="M"/>
    <connection from=":c_10" to="c2w" fromLane="1" toLane="2" dir="s" state="M"/>
    <connection from=":c_10" to="c2w" fromLane="2" toLane="3" dir="s" state="M"/>
    <connection from=":c_10" to="c2w" fromLane="3" toLane="4" dir="s" state="M"/>
    <connection from=":c_14" to="c2s" fromLane="0" toLane="3" dir="l" state="M"/>
    <connection from=":c_14" to="c2s" fromLane="1" toLane="4" dir="l" state="M"/>
    <connection from=":c_16" to="c2e" fromLane="0" toLane="0" dir="r" state="M"/>
    <connection from=":c_16" to="c2e" fromLane="1" toLane="1" dir="r" state="M"/>
    <connection from=":c_18" to="c2n" fromLane="0" toLane="1" dir="s" state="M"/>
    <connection from=":c_18" to="c2n" fromLane="1" toLane="2" dir="s" state="M"/>
    <connection from=":c_18" to="c2n" fromLane="2" toLane="3" dir="s" state="M"/>
    <connection from=":c_18" to="c2n" fromLane="3" toLane="4" dir="s" state="M"/>
    <connection from=":c_22" to="c2w" fromLane="0" toLane="3" dir="l" state="M"/>
    <connection from=":c_22" to="c2w" fromLane="1" toLane="4" dir="l" state="M"/>
    <connection from=":c_24" to="c2s" fromLane="0" toLane="0" dir="r" state="M"/>
    <connection from=":c_24" to="c2s" fromLane="1" toLane="1" dir="r" state="M"/>
    <connection from=":c_26" to="c2e" fromLane="0" toLane="1" dir="s" state="M"/>
    <connection from=":c_26" to="c2e" fromLane="1" toLane="2" dir="s" state="M"/>
    <connection from=":c_26" to="c2e" fromLane="2" toLane="3" dir="s" state="M"/>
    <connection from=":c_26" to="c2e" fromLane="3" toLane="4" dir="s" state="M"/>
    <connection from=":c_30" to="c2n" fromLane="0" toLane="3" dir="l" state="M"/>
    <connection from=":c_30" to="c2n" fromLane="1" toLane="4" dir="l" state="M"/>

</net>
